Version 4
SHEET 1 880 680
WIRE 400 -176 224 -176
WIRE 496 -176 400 -176
WIRE 400 -144 400 -176
WIRE 496 -96 496 -176
WIRE 496 -96 400 -96
WIRE 352 -64 320 -64
WIRE 400 -32 400 -48
WIRE 512 -32 400 -32
WIRE 576 -32 512 -32
WIRE 400 0 400 -32
WIRE 480 48 400 48
WIRE -48 64 -304 64
WIRE 16 64 -48 64
WIRE 160 80 96 80
WIRE 272 80 160 80
WIRE 320 80 320 -64
WIRE 320 80 272 80
WIRE 352 80 320 80
WIRE -304 96 -304 64
WIRE 16 96 -32 96
WIRE 160 128 160 80
WIRE 160 128 -48 128
WIRE 272 192 272 80
WIRE 400 192 272 192
WIRE 480 240 400 240
WIRE 352 272 320 272
WIRE 400 304 400 288
WIRE 512 304 400 304
WIRE 576 304 512 304
WIRE 400 336 400 304
WIRE -32 352 -32 96
WIRE 160 352 -32 352
WIRE 480 384 400 384
WIRE -48 400 -48 128
WIRE 16 400 -48 400
WIRE 160 416 160 352
WIRE 160 416 96 416
WIRE 224 416 224 -176
WIRE 224 416 160 416
WIRE 320 416 320 272
WIRE 320 416 224 416
WIRE 352 416 320 416
WIRE -48 432 -336 432
WIRE 16 432 -48 432
FLAG -48 64 In1
FLAG -48 432 In2
FLAG 400 96 0
FLAG 400 432 0
FLAG 512 304 Out2
FLAG 480 48 0
FLAG 480 240 VDD
FLAG 480 384 0
FLAG -304 176 0
FLAG -336 512 0
FLAG 512 -32 Out1
FLAG 576 368 0
FLAG 576 32 0
FLAG -624 0 0
FLAG -624 -80 VDD
SYMBOL nand 48 80 R0
WINDOW 0 -19 0 Left 2
SYMATTR InstName X1
SYMBOL nand 48 416 R0
WINDOW 0 -18 -2 Left 2
SYMATTR InstName X2
SYMBOL pmos4 352 -144 R0
SYMATTR InstName M1
SYMBOL pmos4 352 192 R0
SYMATTR InstName M2
SYMBOL nmos4 352 0 R0
SYMATTR InstName M3
SYMBOL nmos4 352 336 R0
SYMATTR InstName M4
SYMBOL voltage -304 80 R0
WINDOW 3 -98 128 Left 2
WINDOW 123 0 0 Left 2
WINDOW 39 0 0 Left 2
SYMATTR Value PULSE(0 5 0.5u 1p 1p 0.5u 1u 100)
SYMATTR InstName V1
SYMBOL voltage -336 416 R0
WINDOW 3 -183 133 Left 2
WINDOW 123 0 0 Left 2
WINDOW 39 0 0 Left 2
SYMATTR Value PULSE(0 5 2u 1p 1p 1u 2u 100)
SYMATTR InstName V2
SYMBOL cap 560 304 R0
SYMATTR InstName CLOAD
SYMATTR Value 0.2f
SYMBOL cap 560 -32 R0
SYMATTR InstName CLOAD2
SYMATTR Value 0.02f
SYMBOL voltage -624 -96 R0
WINDOW 123 0 0 Left 2
WINDOW 39 0 0 Left 2
SYMATTR InstName VDD
SYMATTR Value 5
TEXT -520 568 Left 2 !.tran 12u
TEXT -736 96 Left 2 !.global VDD\n.lib ON_C5.lib
