Version 4
SHEET 1 880 680
WIRE -240 -144 -320 -144
WIRE -112 -128 -144 -128
WIRE -96 -128 -112 -128
WIRE -240 -112 -320 -112
WIRE -96 -80 -96 -128
WIRE -64 -80 -96 -80
WIRE 96 -64 32 -64
WIRE -64 -48 -320 -48
WIRE 16 48 0 48
WIRE 64 48 16 48
WIRE 208 64 144 64
WIRE 16 80 0 80
WIRE 64 80 16 80
WIRE 16 128 0 128
WIRE 64 128 16 128
WIRE 208 128 208 64
WIRE 224 128 208 128
WIRE 224 144 144 144
WIRE 368 144 304 144
WIRE 16 160 0 160
WIRE 64 160 16 160
WIRE 224 160 208 160
WIRE 16 208 0 208
WIRE 64 208 16 208
WIRE 208 224 208 160
WIRE 208 224 144 224
WIRE 16 240 0 240
WIRE 64 240 16 240
FLAG 16 48 a
FLAG 16 80 b
FLAG 16 128 b
FLAG 16 160 c
FLAG 16 208 a
FLAG 16 240 c
FLAG 0 48 a[3:0]
IOPIN 0 48 In
FLAG 0 208 a[3:0]
IOPIN 0 208 In
FLAG 0 80 b[3:0]
IOPIN 0 80 In
FLAG 0 128 b[3:0]
IOPIN 0 128 In
FLAG 0 160 c
IOPIN 0 160 In
FLAG 0 240 c
IOPIN 0 240 In
FLAG -320 -144 a[3:0]
IOPIN -320 -144 In
FLAG -320 -112 b[3:0]
IOPIN -320 -112 In
FLAG -320 -48 c
IOPIN -320 -48 In
FLAG 96 -64 S[3:0]
IOPIN 96 -64 Out
FLAG 368 144 Cout
IOPIN 368 144 Out
FLAG -112 -128 [3:0]
SYMBOL nand 96 64 R0
SYMATTR InstName X1
SYMBOL 3_input_nand 256 144 R0
SYMATTR InstName X4
SYMBOL xor -192 -192 R0
SYMATTR InstName X5
SYMBOL xor -16 -128 R0
SYMATTR InstName X6
SYMBOL nand_2 96 144 R0
SYMATTR InstName X2
SYMBOL nand_2 96 224 R0
SYMATTR InstName X3
TEXT -520 72 Left 2 !.global VDD\n.lib ON_C5.lib
