Version 4
SHEET 1 880 680
WIRE 240 96 144 96
WIRE 272 96 240 96
WIRE 144 128 144 96
WIRE 0 240 0 176
FLAG 0 96 VDD
FLAG 0 240 0
FLAG 144 208 0
FLAG 240 96 in
FLAG 432 96 out
SYMBOL voltage 0 80 R0
WINDOW 123 0 0 Left 2
WINDOW 39 0 0 Left 2
SYMATTR InstName vdd
SYMATTR Value 5
SYMBOL voltage 144 112 R0
WINDOW 123 0 0 Left 2
WINDOW 39 0 0 Left 2
SYMATTR InstName vin
SYMATTR Value 5
SYMBOL inverter 416 112 R0
SYMATTR InstName X1
TEXT 376 224 Left 2 !.dc vin 1 4 .01
