Version 4
SHEET 1 880 680
WIRE 112 80 48 80
WIRE 112 96 112 80
WIRE 128 96 112 96
WIRE 160 96 128 96
WIRE 272 112 240 112
WIRE 320 112 272 112
WIRE 128 128 128 96
WIRE 160 128 128 128
WIRE -80 144 -80 112
WIRE 48 176 48 160
WIRE 320 208 320 176
WIRE -80 256 -80 224
FLAG -80 112 VDD
FLAG -80 256 0
FLAG 320 208 0
FLAG 48 176 0
FLAG 272 112 out
FLAG 128 96 in
SYMBOL voltage -80 128 R0
WINDOW 123 0 0 Left 2
WINDOW 39 0 0 Left 2
SYMATTR InstName VDD
SYMATTR Value 5
SYMBOL cap 304 112 R0
SYMATTR InstName CLOAD
SYMATTR Value 10fF
SYMBOL voltage 48 64 R0
WINDOW 0 -48 10 Left 2
WINDOW 3 29 82 Left 2
WINDOW 123 0 0 Left 2
WINDOW 39 0 0 Left 2
SYMATTR InstName V1
SYMATTR Value 0
SYMBOL nand 192 112 R0
SYMATTR InstName G1
TEXT -112 336 Left 2 !;tran 10n
TEXT 104 280 Left 2 !.dc V1 0 5 0.01
