Version 4
SHEET 1 880 680
WIRE 368 0 320 0
WIRE 512 0 448 0
WIRE 512 80 512 0
WIRE 512 80 464 80
WIRE 544 80 512 80
WIRE 304 96 224 96
WIRE 320 96 320 0
WIRE 320 96 304 96
WIRE 352 96 320 96
WIRE 224 128 224 96
WIRE 32 160 32 128
WIRE 224 240 224 192
FLAG 32 48 VDD
FLAG 32 160 0
FLAG 544 80 out
FLAG 304 96 in
FLAG 224 240 0
SYMBOL voltage 32 32 R0
WINDOW 123 0 0 Left 2
WINDOW 39 0 0 Left 2
SYMATTR InstName VDD
SYMATTR Value 5
SYMBOL Schmitt_trigger 400 48 R0
SYMATTR InstName X1
SYMBOL cap 208 128 R0
SYMATTR InstName C1
SYMATTR Value 1p
SYMBOL res 352 16 R270
WINDOW 0 32 56 VTop 2
WINDOW 3 0 56 VBottom 2
SYMATTR InstName R1
SYMATTR Value 55k
TEXT 0 280 Left 2 !.tran 3u
