Version 4
SHEET 1 880 680
WIRE 480 80 464 80
WIRE 592 80 480 80
WIRE 304 96 224 96
WIRE 352 96 304 96
WIRE 224 128 224 96
WIRE 592 128 592 80
WIRE 32 160 32 128
WIRE 224 240 224 208
WIRE 592 256 592 192
FLAG 32 48 VDD
FLAG 32 160 0
FLAG 480 80 out
FLAG 304 96 in
FLAG 592 256 0
FLAG 224 240 0
SYMBOL voltage 32 32 R0
WINDOW 123 0 0 Left 2
WINDOW 39 0 0 Left 2
SYMATTR InstName VDD
SYMATTR Value 5
SYMBOL cap 576 128 R0
SYMATTR InstName CLOAD
SYMATTR Value 45f
SYMBOL Schmitt_trigger 400 48 R0
SYMATTR InstName X1
SYMBOL voltage 224 112 R0
WINDOW 123 0 0 Left 2
WINDOW 39 0 0 Left 2
SYMATTR InstName V1
SYMATTR Value SINE(3 3 3MEG 0)
TEXT 0 280 Left 2 !.tran 2u
