Version 4
SHEET 1 880 680
WIRE 0 80 -48 80
WIRE 112 80 0 80
WIRE 352 96 208 96
WIRE 384 96 352 96
WIRE 48 112 32 112
WIRE 112 112 48 112
WIRE -48 144 -48 80
WIRE 32 144 32 112
WIRE -48 256 -48 224
WIRE 32 256 32 224
FLAG 0 80 A
FLAG 48 112 B
FLAG 496 112 0
FLAG 496 32 VDD
FLAG 352 96 out
FLAG -48 256 0
FLAG 32 256 0
SYMBOL xor_1 160 32 R0
SYMATTR InstName X1
SYMBOL voltage -48 128 R0
WINDOW 3 -137 -116 Left 2
WINDOW 123 0 0 Left 2
WINDOW 39 0 0 Left 2
SYMATTR Value PULSE(0 5 0.1n 0.1n 0.1n 1.2n 2.5n)
SYMATTR InstName V1
SYMBOL voltage 32 128 R0
WINDOW 3 32 134 Left 2
WINDOW 123 0 0 Left 2
WINDOW 39 0 0 Left 2
SYMATTR Value PULSE(0 5 0.1n 0.1n 0.1n 2n 3n)
SYMATTR InstName V2
SYMBOL voltage 496 16 R0
WINDOW 123 0 0 Left 2
WINDOW 39 0 0 Left 2
SYMATTR InstName VDD
SYMATTR Value 5
TEXT 128 288 Left 2 !.global VDD\n.lib ON_C5.lib
TEXT -80 336 Left 2 !.tran 10n
